api/pglib_opf_case162_ieee_dtc__api.m
%%%%%%%%%%%%%%%%%%%%%%%%%%%%%%%%%%%%%%%%%%%%%%%%%%%%%%%%%%%%%%%%%%%%%%%%%%%
%%%%                                                                  %%%%%
%%%%    IEEE PES Power Grid Library - Optimal Power Flow - v18.08     %%%%%
%%%%          (https://github.com/power-grid-lib/pglib-opf)           %%%%%
%%%%             Benchmark Group - Active Power Increase              %%%%%
%%%%                        08 - August - 2018                        %%%%%
%%%%                                                                  %%%%%
%%%%%%%%%%%%%%%%%%%%%%%%%%%%%%%%%%%%%%%%%%%%%%%%%%%%%%%%%%%%%%%%%%%%%%%%%%%
function mpc = pglib_opf_case162_ieee_dtc__api
mpc.version = '2';
mpc.baseMVA = 100.0;

%% bus data
%	bus_i	type	Pd	Qd	Gs	Bs	area	Vm	Va	baseKV	zone	Vmax	Vmin
mpc.bus = [
	1	 1	 0.0	 0.0	 0.0	 -100.0	 1	    1.00000	    0.00000	 345.0	 9	    1.06000	    0.94000;
	2	 1	 0.0	 0.0	 0.0	 0.0	 1	    1.00000	    0.00000	 345.0	 9	    1.06000	    0.94000;
	3	 1	 406.38	 96.90	 0.0	 0.0	 1	    1.00000	    0.00000	 161.0	 12	    1.06000	    0.94000;
	4	 1	 0.0	 0.0	 0.0	 0.0	 1	    1.00000	    0.00000	 345.0	 3	    1.06000	    0.94000;
	5	 1	 0.0	 0.0	 0.0	 -50.0	 1	    1.00000	    0.00000	 345.0	 8	    1.06000	    0.94000;
	6	 2	 0.0	 0.0	 0.0	 0.0	 1	    1.00000	    0.00000	 22.0	 9	    1.06000	    0.94000;
	7	 1	 0.0	 0.0	 0.0	 0.0	 1	    1.00000	    0.00000	 345.0	 9	    1.06000	    0.94000;
	8	 1	 398.00	 0.00	 0.0	 0.0	 1	    1.00000	    0.00000	 115.0	 12	    1.06000	    0.94000;
	9	 1	 0.0	 0.0	 0.0	 0.0	 1	    1.00000	    0.00000	 345.0	 8	    1.06000	    0.94000;
	10	 1	 226.00	 0.00	 0.0	 0.0	 1	    1.00000	    0.00000	 230.0	 12	    1.06000	    0.94000;
	11	 1	 0.0	 0.0	 0.0	 0.0	 1	    1.00000	    0.00000	 230.0	 10	    1.06000	    0.94000;
	12	 1	 193.00	 0.00	 0.0	 0.0	 1	    1.00000	    0.00000	 115.0	 12	    1.06000	    0.94000;
	13	 1	 204.00	 0.00	 0.0	 0.0	 1	    1.00000	    0.00000	 345.0	 12	    1.06000	    0.94000;
	14	 1	 381.00	 0.00	 0.0	 0.0	 1	    1.00000	    0.00000	 161.0	 12	    1.06000	    0.94000;
	15	 1	 -80.00	 0.00	 0.0	 0.0	 1	    1.00000	    0.00000	 230.0	 12	    1.06000	    0.94000;
	16	 1	 -54.20	 0.00	 0.0	 0.0	 1	    1.00000	    0.00000	 161.0	 12	    1.06000	    0.94000;
	17	 1	 -116.50	 0.00	 0.0	 0.0	 1	    1.00000	    0.00000	 161.0	 12	    1.06000	    0.94000;
	18	 1	 37.78	 11.67	 0.0	 0.0	 1	    1.00000	    0.00000	 161.0	 6	    1.06000	    0.94000;
	19	 1	 64.40	 0.00	 0.0	 0.0	 1	    1.00000	    0.00000	 161.0	 12	    1.06000	    0.94000;
	20	 1	 41.63	 12.50	 0.0	 0.0	 1	    1.00000	    0.00000	 69.0	 10	    1.06000	    0.94000;
	21	 1	 -69.80	 0.00	 0.0	 0.0	 1	    1.00000	    0.00000	 161.0	 12	    1.06000	    0.94000;
	22	 1	 19.10	 5.27	 0.0	 0.0	 1	    1.00000	    0.00000	 161.0	 6	    1.06000	    0.94000;
	23	 1	 63.50	 0.00	 0.0	 0.0	 1	    1.00000	    0.00000	 161.0	 12	    1.06000	    0.94000;
	24	 1	 0.0	 0.0	 0.0	 0.0	 1	    1.00000	    0.00000	 161.0	 6	    1.06000	    0.94000;
	25	 1	 0.0	 0.0	 0.0	 -50.0	 1	    1.00000	    0.00000	 345.0	 6	    1.06000	    0.94000;
	26	 1	 0.0	 0.0	 0.0	 -50.0	 1	    1.00000	    0.00000	 345.0	 1	    1.06000	    0.94000;
	27	 1	 355.86	 57.90	 0.0	 0.0	 1	    1.00000	    0.00000	 345.0	 12	    1.06000	    0.94000;
	28	 1	 42.25	 13.17	 0.0	 0.0	 1	    1.00000	    0.00000	 161.0	 6	    1.06000	    0.94000;
	29	 1	 31.09	 9.03	 0.0	 0.0	 1	    1.00000	    0.00000	 161.0	 6	    1.06000	    0.94000;
	30	 1	 111.15	 32.52	 0.0	 15.0	 1	    1.00000	    0.00000	 161.0	 6	    1.06000	    0.94000;
	31	 1	 72.50	 0.00	 0.0	 0.0	 1	    1.00000	    0.00000	 161.0	 12	    1.06000	    0.94000;
	32	 1	 57.88	 15.06	 0.0	 20.0	 1	    1.00000	    0.00000	 161.0	 6	    1.06000	    0.94000;
	33	 1	 49.61	 15.06	 0.0	 20.0	 1	    1.00000	    0.00000	 161.0	 6	    1.06000	    0.94000;
	34	 1	 15.57	 5.25	 0.0	 3.2	 1	    1.00000	    0.00000	 161.0	 1	    1.06000	    0.94000;
	35	 1	 59.84	 14.63	 0.0	 5.0	 1	    1.00000	    0.00000	 161.0	 1	    1.06000	    0.94000;
	36	 1	 35.10	 8.68	 0.0	 3.0	 1	    1.00000	    0.00000	 161.0	 2	    1.06000	    0.94000;
	37	 1	 0.0	 0.0	 0.0	 0.0	 1	    1.00000	    0.00000	 345.0	 11	    1.06000	    0.94000;
	38	 1	 16.21	 4.08	 0.0	 1.5	 1	    1.00000	    0.00000	 161.0	 2	    1.06000	    0.94000;
	39	 1	 0.0	 0.0	 0.0	 0.0	 1	    1.00000	    0.00000	 345.0	 6	    1.06000	    0.94000;
	40	 1	 58.08	 17.60	 0.0	 0.0	 1	    1.00000	    0.00000	 161.0	 1	    1.06000	    0.94000;
	41	 1	 43.05	 12.80	 0.0	 0.0	 1	    1.00000	    0.00000	 161.0	 1	    1.06000	    0.94000;
	42	 1	 0.0	 0.0	 0.0	 0.0	 1	    1.00000	    0.00000	 345.0	 2	    1.06000	    0.94000;
	43	 1	 41.50	 0.00	 0.0	 0.0	 1	    1.00000	    0.00000	 161.0	 12	    1.06000	    0.94000;
	44	 1	 17.92	 3.71	 0.0	 0.0	 1	    1.00000	    0.00000	 161.0	 2	    1.06000	    0.94000;
	45	 1	 21.99	 5.41	 0.0	 1.9	 1	    1.00000	    0.00000	 161.0	 2	    1.06000	    0.94000;
	46	 1	 71.73	 22.30	 0.0	 26.2	 1	    1.00000	    0.00000	 161.0	 10	    1.06000	    0.94000;
	47	 1	 5.29	 1.56	 0.0	 0.0	 1	    1.00000	    0.00000	 161.0	 2	    1.06000	    0.94000;
	48	 1	 37.08	 22.86	 0.0	 0.0	 1	    1.00000	    0.00000	 161.0	 10	    1.06000	    0.94000;
	49	 1	 7.49	 1.78	 0.0	 0.0	 1	    1.00000	    0.00000	 161.0	 2	    1.06000	    0.94000;
	50	 1	 99.70	 0.00	 0.0	 0.0	 1	    1.00000	    0.00000	 161.0	 12	    1.06000	    0.94000;
	51	 1	 0.0	 0.0	 0.0	 0.0	 1	    1.00000	    0.00000	 161.0	 3	    1.06000	    0.94000;
	52	 1	 239.65	 42.80	 0.0	 0.0	 1	    1.00000	    0.00000	 161.0	 3	    1.06000	    0.94000;
	53	 1	 0.0	 0.0	 0.0	 0.0	 1	    1.00000	    0.00000	 161.0	 10	    1.06000	    0.94000;
	54	 1	 77.26	 29.57	 0.0	 0.0	 1	    1.00000	    0.00000	 161.0	 10	    1.06000	    0.94000;
	55	 1	 0.0	 0.0	 0.0	 0.0	 1	    1.00000	    0.00000	 161.0	 1	    1.06000	    0.94000;
	56	 1	 27.78	 7.26	 0.0	 3.2	 1	    1.00000	    0.00000	 161.0	 7	    1.06000	    0.94000;
	57	 1	 53.25	 15.61	 0.0	 0.0	 1	    1.00000	    0.00000	 161.0	 1	    1.06000	    0.94000;
	58	 1	 0.0	 0.0	 0.0	 0.0	 1	    1.00000	    0.00000	 230.0	 10	    1.06000	    0.94000;
	59	 1	 92.73	 27.05	 0.0	 0.0	 1	    1.00000	    0.00000	 230.0	 10	    1.06000	    0.94000;
	60	 1	 244.00	 0.00	 0.0	 0.0	 1	    1.00000	    0.00000	 115.0	 12	    1.06000	    0.94000;
	61	 1	 0.0	 0.0	 0.0	 0.0	 1	    1.00000	    0.00000	 230.0	 10	    1.06000	    0.94000;
	62	 1	 -865.60	 0.00	 0.0	 0.0	 1	    1.00000	    0.00000	 230.0	 12	    1.06000	    0.94000;
	63	 1	 59.10	 0.00	 0.0	 0.0	 1	    1.00000	    0.00000	 230.0	 12	    1.06000	    0.94000;
	64	 1	 0.0	 0.0	 0.0	 0.0	 1	    1.00000	    0.00000	 345.0	 10	    1.06000	    0.94000;
	65	 1	 -26.30	 0.00	 0.0	 0.0	 1	    1.00000	    0.00000	 345.0	 12	    1.06000	    0.94000;
	66	 1	 0.0	 0.0	 0.0	 -50.0	 1	    1.00000	    0.00000	 345.0	 10	    1.06000	    0.94000;
	67	 1	 24.76	 7.03	 0.0	 6.0	 1	    1.00000	    0.00000	 161.0	 7	    1.06000	    0.94000;
	68	 1	 44.39	 12.68	 0.0	 12.0	 1	    1.00000	    0.00000	 161.0	 7	    1.06000	    0.94000;
	69	 1	 0.0	 0.0	 0.0	 0.0	 1	    1.00000	    0.00000	 161.0	 1	    1.06000	    0.94000;
	70	 1	 0.0	 0.0	 0.0	 0.0	 1	    1.00000	    0.00000	 161.0	 1	    1.06000	    0.94000;
	71	 1	 32.81	 11.93	 0.0	 12.0	 1	    1.00000	    0.00000	 161.0	 1	    1.06000	    0.94000;
	72	 1	 427.00	 0.00	 0.0	 0.0	 1	    1.00000	    0.00000	 161.0	 12	    1.06000	    0.94000;
	73	 2	 0.0	 0.0	 0.0	 0.0	 1	    1.00000	    0.00000	 20.0	 1	    1.06000	    0.94000;
	74	 1	 0.0	 0.0	 0.0	 0.0	 1	    1.00000	    0.00000	 345.0	 5	    1.06000	    0.94000;
	75	 1	 0.0	 0.0	 0.0	 -50.0	 1	    1.00000	    0.00000	 345.0	 8	    1.06000	    0.94000;
	76	 2	 0.0	 0.0	 0.0	 0.0	 1	    1.00000	    0.00000	 24.0	 1	    1.06000	    0.94000;
	77	 1	 29.01	 8.78	 0.0	 4.7	 1	    1.00000	    0.00000	 161.0	 1	    1.06000	    0.94000;
	78	 1	 79.12	 0.00	 0.0	 0.0	 1	    1.00000	    0.00000	 161.0	 5	    1.06000	    0.94000;
	79	 1	 0.0	 0.0	 0.0	 0.0	 1	    1.00000	    0.00000	 161.0	 5	    1.06000	    0.94000;
	80	 1	 17.31	 5.25	 0.0	 2.8	 1	    1.00000	    0.00000	 161.0	 1	    1.06000	    0.94000;
	81	 1	 55.88	 16.80	 0.0	 22.1	 1	    1.00000	    0.00000	 69.0	 1	    1.06000	    0.94000;
	82	 1	 68.40	 20.26	 0.0	 10.4	 1	    1.00000	    0.00000	 161.0	 1	    1.06000	    0.94000;
	83	 1	 0.0	 0.0	 0.0	 0.0	 1	    1.00000	    0.00000	 161.0	 1	    1.06000	    0.94000;
	84	 1	 41.63	 9.49	 0.0	 2.6	 1	    1.00000	    0.00000	 161.0	 2	    1.06000	    0.94000;
	85	 1	 44.50	 11.26	 0.0	 12.0	 1	    1.00000	    0.00000	 161.0	 1	    1.06000	    0.94000;
	86	 1	 55.72	 13.35	 0.0	 12.0	 1	    1.00000	    0.00000	 161.0	 2	    1.06000	    0.94000;
	87	 1	 18.57	 4.23	 0.0	 0.0	 1	    1.00000	    0.00000	 115.0	 2	    1.06000	    0.94000;
	88	 1	 66.56	 4.44	 0.0	 0.0	 1	    1.00000	    0.00000	 69.0	 4	    1.06000	    0.94000;
	89	 1	 0.0	 0.0	 0.0	 0.0	 1	    1.00000	    0.00000	 115.0	 2	    1.06000	    0.94000;
	90	 1	 55.15	 16.76	 0.0	 10.0	 1	    1.00000	    0.00000	 115.0	 2	    1.06000	    0.94000;
	91	 1	 56.28	 12.83	 0.0	 0.0	 1	    1.00000	    0.00000	 161.0	 2	    1.06000	    0.94000;
	92	 1	 39.67	 9.05	 0.0	 0.0	 1	    1.00000	    0.00000	 161.0	 2	    1.06000	    0.94000;
	93	 1	 114.01	 34.56	 0.0	 0.0	 1	    1.00000	    0.00000	 161.0	 2	    1.06000	    0.94000;
	94	 1	 180.12	 6.49	 0.0	 0.0	 1	    1.00000	    0.00000	 161.0	 5	    1.06000	    0.94000;
	95	 1	 128.72	 39.01	 0.0	 0.0	 1	    1.00000	    0.00000	 115.0	 2	    1.06000	    0.94000;
	96	 1	 119.20	 0.00	 0.0	 0.0	 1	    1.00000	    0.00000	 115.0	 2	    1.06000	    0.94000;
	97	 1	 25.09	 5.71	 0.0	 0.0	 1	    1.00000	    0.00000	 115.0	 2	    1.06000	    0.94000;
	98	 1	 165.96	 50.35	 0.0	 0.0	 1	    1.00000	    0.00000	 115.0	 2	    1.06000	    0.94000;
	99	 2	 0.0	 0.0	 0.0	 0.0	 1	    1.00000	    0.00000	 18.0	 2	    1.06000	    0.94000;
	100	 1	 25.49	 6.90	 0.0	 3.0	 1	    1.00000	    0.00000	 115.0	 2	    1.06000	    0.94000;
	101	 2	 0.0	 0.0	 0.0	 0.0	 1	    1.00000	    0.00000	 14.0	 2	    1.06000	    0.94000;
	102	 1	 18.17	 4.08	 0.0	 0.0	 1	    1.00000	    0.00000	 161.0	 2	    1.06000	    0.94000;
	103	 1	 322.00	 0.00	 0.0	 0.0	 1	    1.00000	    0.00000	 161.0	 12	    1.06000	    0.94000;
	104	 1	 34.62	 10.46	 0.0	 5.6	 1	    1.00000	    0.00000	 115.0	 2	    1.06000	    0.94000;
	105	 1	 27.28	 6.23	 0.0	 1.7	 1	    1.00000	    0.00000	 115.0	 2	    1.06000	    0.94000;
	106	 1	 0.0	 0.0	 0.0	 0.0	 1	    1.00000	    0.00000	 161.0	 4	    1.06000	    0.94000;
	107	 1	 38.89	 5.41	 0.0	 0.0	 1	    1.00000	    0.00000	 161.0	 4	    1.06000	    0.94000;
	108	 3	 0.0	 0.0	 0.0	 0.0	 1	    1.00000	    0.00000	 22.0	 2	    1.06000	    0.94000;
	109	 1	 0.0	 0.0	 0.0	 0.0	 1	    1.00000	    0.00000	 345.0	 5	    1.06000	    0.94000;
	110	 1	 0.0	 0.0	 0.0	 0.0	 1	    1.00000	    0.00000	 161.0	 3	    1.06000	    0.94000;
	111	 1	 71.84	 16.72	 0.0	 0.0	 1	    1.00000	    0.00000	 161.0	 3	    1.06000	    0.94000;
	112	 1	 0.0	 0.0	 0.0	 -50.0	 1	    1.00000	    0.00000	 345.0	 3	    1.06000	    0.94000;
	113	 1	 32.70	 0.00	 0.0	 0.0	 1	    1.00000	    0.00000	 161.0	 12	    1.06000	    0.94000;
	114	 2	 0.0	 0.0	 0.0	 0.0	 1	    1.00000	    0.00000	 14.0	 3	    1.06000	    0.94000;
	115	 1	 19.02	 3.34	 0.0	 0.0	 1	    1.00000	    0.00000	 161.0	 3	    1.06000	    0.94000;
	116	 1	 61.59	 11.20	 0.0	 0.0	 1	    1.00000	    0.00000	 161.0	 3	    1.06000	    0.94000;
	117	 1	 111.92	 20.06	 0.0	 0.0	 1	    1.00000	    0.00000	 161.0	 3	    1.06000	    0.94000;
	118	 2	 0.0	 0.0	 0.0	 0.0	 1	    1.00000	    0.00000	 14.0	 3	    1.06000	    0.94000;
	119	 1	 0.0	 0.0	 0.0	 0.0	 1	    1.00000	    0.00000	 345.0	 3	    1.06000	    0.94000;
	120	 1	 0.0	 0.0	 0.0	 0.0	 1	    1.00000	    0.00000	 345.0	 8	    1.06000	    0.94000;
	121	 2	 0.0	 0.0	 0.0	 0.0	 1	    1.00000	    0.00000	 24.0	 3	    1.06000	    0.94000;
	122	 1	 51.93	 9.36	 0.0	 0.0	 1	    1.00000	    0.00000	 161.0	 3	    1.06000	    0.94000;
	123	 1	 165.00	 0.00	 0.0	 0.0	 1	    1.00000	    0.00000	 161.0	 12	    1.06000	    0.94000;
	124	 1	 -571.00	 90.90	 0.0	 0.0	 1	    1.00000	    0.00000	 345.0	 12	    1.06000	    0.94000;
	125	 2	 2000.00	 0.00	 0.0	 0.0	 1	    1.00000	    0.00000	 345.0	 12	    1.06000	    0.94000;
	126	 1	 -467.00	 0.00	 0.0	 0.0	 1	    1.00000	    0.00000	 345.0	 12	    1.06000	    0.94000;
	127	 1	 -52.60	 0.00	 0.0	 0.0	 1	    1.00000	    0.00000	 345.0	 12	    1.06000	    0.94000;
	128	 1	 0.0	 0.0	 0.0	 0.0	 1	    1.00000	    0.00000	 345.0	 8	    1.06000	    0.94000;
	129	 1	 0.0	 0.0	 0.0	 0.0	 1	    1.00000	    0.00000	 345.0	 8	    1.06000	    0.94000;
	130	 2	 0.0	 0.0	 0.0	 0.0	 1	    1.00000	    0.00000	 22.0	 8	    1.06000	    0.94000;
	131	 2	 0.0	 0.0	 0.0	 0.0	 1	    1.00000	    0.00000	 18.0	 8	    1.06000	    0.94000;
	132	 1	 159.00	 0.00	 0.0	 0.0	 1	    1.00000	    0.00000	 161.0	 12	    1.06000	    0.94000;
	133	 1	 33.06	 6.02	 0.0	 0.0	 1	    1.00000	    0.00000	 69.0	 3	    1.06000	    0.94000;
	134	 1	 19.18	 3.34	 0.0	 0.0	 1	    1.00000	    0.00000	 161.0	 3	    1.06000	    0.94000;
	135	 1	 22.03	 4.01	 0.0	 0.0	 1	    1.00000	    0.00000	 69.0	 3	    1.06000	    0.94000;
	136	 1	 22.03	 4.01	 0.0	 0.0	 1	    1.00000	    0.00000	 69.0	 3	    1.06000	    0.94000;
	137	 1	 22.03	 4.01	 0.0	 0.0	 1	    1.00000	    0.00000	 69.0	 3	    1.06000	    0.94000;
	138	 1	 0.0	 0.0	 0.0	 0.0	 1	    1.00000	    0.00000	 69.0	 3	    1.06000	    0.94000;
	139	 1	 11.09	 2.01	 0.0	 0.0	 1	    1.00000	    0.00000	 69.0	 3	    1.06000	    0.94000;
	140	 1	 14.92	 2.68	 0.0	 0.0	 1	    1.00000	    0.00000	 69.0	 3	    1.06000	    0.94000;
	141	 1	 0.0	 0.0	 0.0	 0.0	 1	    1.00000	    0.00000	 161.0	 3	    1.06000	    0.94000;
	142	 1	 29.75	 5.35	 0.0	 0.0	 1	    1.00000	    0.00000	 69.0	 3	    1.06000	    0.94000;
	143	 1	 23.14	 4.01	 0.0	 0.0	 1	    1.00000	    0.00000	 69.0	 3	    1.06000	    0.94000;
	144	 1	 13.59	 2.01	 0.0	 0.0	 1	    1.00000	    0.00000	 69.0	 3	    1.06000	    0.94000;
	145	 1	 11.89	 2.21	 0.0	 0.0	 1	    1.00000	    0.00000	 69.0	 3	    1.06000	    0.94000;
	146	 1	 23.43	 4.01	 0.0	 0.0	 1	    1.00000	    0.00000	 69.0	 3	    1.06000	    0.94000;
	147	 1	 237.68	 42.80	 0.0	 0.0	 1	    1.00000	    0.00000	 161.0	 3	    1.06000	    0.94000;
	148	 1	 131.80	 24.00	 0.0	 0.0	 1	    1.00000	    0.00000	 69.0	 3	    1.06000	    0.94000;
	149	 1	 0.0	 0.0	 0.0	 0.0	 1	    1.00000	    0.00000	 161.0	 1	    1.06000	    0.94000;
	150	 1	 5.27	 1.60	 0.0	 0.0	 1	    1.00000	    0.00000	 161.0	 1	    1.06000	    0.94000;
	151	 1	 26.36	 8.00	 0.0	 0.0	 1	    1.00000	    0.00000	 161.0	 1	    1.06000	    0.94000;
	152	 1	 6.00	 0.00	 0.0	 0.0	 1	    1.00000	    0.00000	 161.0	 12	    1.06000	    0.94000;
	153	 1	 4.39	 1.60	 0.0	 0.0	 1	    1.00000	    0.00000	 69.0	 1	    1.06000	    0.94000;
	154	 1	 30.75	 9.60	 0.0	 6.0	 1	    1.00000	    0.00000	 69.0	 1	    1.06000	    0.94000;
	155	 1	 13.18	 4.00	 0.0	 0.0	 1	    1.00000	    0.00000	 69.0	 1	    1.06000	    0.94000;
	156	 1	 8.79	 2.40	 0.0	 0.0	 1	    1.00000	    0.00000	 69.0	 1	    1.06000	    0.94000;
	157	 1	 35.15	 10.40	 0.0	 0.0	 1	    1.00000	    0.00000	 69.0	 1	    1.06000	    0.94000;
	158	 1	 17.57	 5.60	 0.0	 3.0	 1	    1.00000	    0.00000	 69.0	 1	    1.06000	    0.94000;
	159	 1	 8.79	 2.40	 0.0	 0.0	 1	    1.00000	    0.00000	 69.0	 1	    1.06000	    0.94000;
	160	 1	 15.82	 4.80	 0.0	 3.0	 1	    1.00000	    0.00000	 69.0	 1	    1.06000	    0.94000;
	161	 1	 35.15	 10.40	 0.0	 0.0	 1	    1.00000	    0.00000	 161.0	 1	    1.06000	    0.94000;
	162	 1	 21.97	 6.40	 0.0	 0.0	 1	    1.00000	    0.00000	 161.0	 1	    1.06000	    0.94000;
];

%% generator data
%	bus	Pg	Qg	Qmax	Qmin	Vg	mBase	status	Pmax	Pmin	Pc1	Pc2	Qc1min	Qc1max	Qc2min	Qc2max	ramp_agc	ramp_10	ramp_30	ramp_q	apf
mpc.gen = [
	6	 491.5	 0.0	 492.0	 -492.0	 1.0	 100.0	 1	 983	 0.0	 0.0	 0.0	 0.0	 0.0	 0.0	 0.0	 0.0	 0.0	 0.0	 0.0	 0.0; % COW
	73	 256.5	 0.0	 257.0	 -257.0	 1.0	 100.0	 1	 513	 0.0	 0.0	 0.0	 0.0	 0.0	 0.0	 0.0	 0.0	 0.0	 0.0	 0.0	 0.0; % COW
	76	 808.0	 0.0	 808.0	 -808.0	 1.0	 100.0	 1	 1616	 0.0	 0.0	 0.0	 0.0	 0.0	 0.0	 0.0	 0.0	 0.0	 0.0	 0.0	 0.0; % COW
	99	 108.0	 0.0	 108.0	 -108.0	 1.0	 100.0	 1	 216	 0.0	 0.0	 0.0	 0.0	 0.0	 0.0	 0.0	 0.0	 0.0	 0.0	 0.0	 0.0; % NG
	101	 74.5	 0.0	 75.0	 -75.0	 1.0	 100.0	 1	 149	 0.0	 0.0	 0.0	 0.0	 0.0	 0.0	 0.0	 0.0	 0.0	 0.0	 0.0	 0.0; % NG
	108	 306.0	 0.0	 560.0	 -560.0	 1.0	 100.0	 1	 612	 0.0	 0.0	 0.0	 0.0	 0.0	 0.0	 0.0	 0.0	 0.0	 0.0	 0.0	 0.0; % COW
	114	 137.5	 0.0	 138.0	 -138.0	 1.0	 100.0	 1	 275	 0.0	 0.0	 0.0	 0.0	 0.0	 0.0	 0.0	 0.0	 0.0	 0.0	 0.0	 0.0; % NG
	118	 134.0	 0.0	 134.0	 -134.0	 1.0	 100.0	 1	 268	 0.0	 0.0	 0.0	 0.0	 0.0	 0.0	 0.0	 0.0	 0.0	 0.0	 0.0	 0.0; % NG
	121	 480.0	 0.0	 480.0	 -480.0	 1.0	 100.0	 1	 960	 0.0	 0.0	 0.0	 0.0	 0.0	 0.0	 0.0	 0.0	 0.0	 0.0	 0.0	 0.0; % COW
	125	 1211.0	 26.0	 1263.0	 -1211.0	 1.02	 100.0	 1	 2422	 0.0	 0.0	 0.0	 0.0	 0.0	 0.0	 0.0	 0.0	 0.0	 0.0	 0.0	 0.0; % COW
	130	 312.0	 0.0	 312.0	 -312.0	 1.03	 100.0	 1	 624	 0.0	 0.0	 0.0	 0.0	 0.0	 0.0	 0.0	 0.0	 0.0	 0.0	 0.0	 0.0; % COW
	131	 389.5	 0.0	 390.0	 -390.0	 1.018	 100.0	 1	 779	 0.0	 0.0	 0.0	 0.0	 0.0	 0.0	 0.0	 0.0	 0.0	 0.0	 0.0	 0.0; % NG
];

%% generator cost data
%	2	startup	shutdown	n	c(n-1)	...	c0
mpc.gencost = [
	2	 0.0	 0.0	 3	   0.000000	  24.374988	   0.000000; % COW
	2	 0.0	 0.0	 3	   0.000000	  42.653546	   0.000000; % COW
	2	 0.0	 0.0	 3	   0.000000	  20.207179	   0.000000; % COW
	2	 0.0	 0.0	 3	   0.000000	  20.806951	   0.000000; % NG
	2	 0.0	 0.0	 3	   0.000000	  49.758941	   0.000000; % NG
	2	 0.0	 0.0	 3	   0.000000	   6.657268	   0.000000; % COW
	2	 0.0	 0.0	 3	   0.000000	  23.819822	   0.000000; % NG
	2	 0.0	 0.0	 3	   0.000000	  42.071883	   0.000000; % NG
	2	 0.0	 0.0	 3	   0.000000	  33.832029	   0.000000; % COW
	2	 0.0	 0.0	 3	   0.000000	   7.706001	   0.000000; % COW
	2	 0.0	 0.0	 3	   0.000000	  16.676084	   0.000000; % COW
	2	 0.0	 0.0	 3	   0.000000	  13.076122	   0.000000; % NG
];

%% branch data
%	fbus	tbus	r	x	b	rateA	rateB	rateC	ratio	angle	status	angmin	angmax
mpc.branch = [
	1	 2	 0.0035	 0.0321	 0.5438	 613.0	 613.0	 613.0	 0.0	 0.0	 1	 -30.0	 30.0;
	1	 3	 0.0034	 0.0326	 0.7224	 895.0	 895.0	 895.0	 1.0	 0.0	 1	 -30.0	 30.0;
	1	 4	 0.0064	 0.0621	 0.987	 470.0	 470.0	 470.0	 0.0	 0.0	 1	 -30.0	 30.0;
	1	 5	 0.0011	 0.0119	 0.2012	 663.0	 663.0	 663.0	 0.0	 0.0	 1	 -30.0	 30.0;
	1	 6	 0.0	 0.0133	 0.0	 900.0	 2206.0	 2206.0	 1.0519	 0.0	 1	 -30.0	 30.0;
	2	 7	 0.0014	 0.0125	 0.2122	 605.0	 605.0	 605.0	 0.0	 0.0	 1	 -30.0	 30.0;
	2	 13	 0.0046	 0.0417	 0.7058	 610.0	 610.0	 610.0	 0.0	 0.0	 1	 -30.0	 30.0;
	3	 14	 0.2361	 1.0122	 0.0	 29.0	 29.0	 29.0	 0.0	 0.0	 1	 -30.0	 30.0;
	3	 50	 0.0389	 0.1699	 0.0	 169.0	 169.0	 169.0	 0.0	 0.0	 1	 -30.0	 30.0;
	3	 103	 0.1074	 1.8023	 0.0	 17.0	 17.0	 17.0	 0.0	 0.0	 1	 -30.0	 30.0;
	3	 123	 0.2883	 1.6719	 0.0	 18.0	 18.0	 18.0	 0.0	 0.0	 1	 -30.0	 30.0;
	3	 124	 0.014	 0.6483	 0.0	 46.0	 46.0	 46.0	 1.0	 0.0	 1	 -30.0	 30.0;
	3	 125	 0.0084	 0.1139	 0.0	 257.0	 257.0	 257.0	 1.0	 0.0	 1	 -30.0	 30.0;
	4	 112	 0.0059	 0.0568	 0.925	 514.0	 514.0	 514.0	 0.0	 0.0	 1	 -30.0	 30.0;
	4	 115	 0.0	 0.0185	 0.0	 500.0	 1586.0	 1586.0	 1.0	 0.0	 1	 -30.0	 30.0;
	4	 119	 0.0014	 0.0119	 0.205	 591.0	 591.0	 591.0	 0.0	 0.0	 1	 -30.0	 30.0;
	5	 120	 0.0022	 0.0224	 0.3792	 644.0	 644.0	 644.0	 0.0	 0.0	 1	 -30.0	 30.0;
	5	 129	 0.0022	 0.0268	 0.4612	 702.0	 702.0	 702.0	 0.0	 0.0	 1	 -30.0	 30.0;
	5	 131	 0.0	 0.0127	 0.0	 710.0	 2310.0	 2310.0	 1.0249	 0.0	 1	 -30.0	 30.0;
	7	 8	 0.0004	 0.0189	 0.0	 672.0	 1552.0	 1552.0	 0.9751	 0.0	 1	 -30.0	 30.0;
	7	 9	 0.0017	 0.0169	 0.2872	 637.0	 637.0	 637.0	 0.0	 0.0	 1	 -30.0	 30.0;
	8	 10	 0.4591	 1.0703	 0.0	 26.0	 26.0	 26.0	 1.0	 0.0	 1	 -30.0	 30.0;
	8	 12	 0.0106	 0.0574	 0.0	 159.0	 159.0	 159.0	 0.0	 0.0	 1	 -30.0	 30.0;
	8	 13	 0.1274	 0.4784	 0.0	 60.0	 60.0	 60.0	 1.0	 0.0	 1	 -30.0	 30.0;
	8	 14	 0.0473	 0.3956	 0.0	 74.0	 74.0	 74.0	 1.0	 0.0	 1	 -30.0	 30.0;
	8	 15	 0.5035	 1.7433	 0.0	 17.0	 17.0	 17.0	 1.0	 0.0	 1	 -30.0	 30.0;
	8	 132	 0.0252	 0.288	 0.0	 102.0	 102.0	 102.0	 1.0	 0.0	 1	 -30.0	 30.0;
	9	 75	 0.0013	 0.015	 0.2682	 684.0	 684.0	 684.0	 0.0	 0.0	 1	 -30.0	 30.0;
	10	 11	 0.0051	 0.037	 0.0716	 366.0	 366.0	 366.0	 0.0	 0.0	 1	 -30.0	 30.0;
	10	 13	 0.1299	 0.622	 0.0	 47.0	 47.0	 47.0	 1.0	 0.0	 1	 -30.0	 30.0;
	10	 15	 0.1275	 0.7033	 0.0	 42.0	 42.0	 42.0	 0.0	 0.0	 1	 -30.0	 30.0;
	10	 60	 0.2525	 1.2242	 0.0	 24.0	 24.0	 24.0	 1.0	 0.0	 1	 -30.0	 30.0;
	11	 15	 0.0285	 0.1793	 0.3484	 162.0	 162.0	 162.0	 0.0	 0.0	 1	 -30.0	 30.0;
	11	 46	 0.0142	 0.1225	 0.1876	 238.0	 238.0	 238.0	 1.0	 0.0	 1	 -30.0	 30.0;
	11	 58	 0.017	 0.107	 0.2074	 271.0	 271.0	 271.0	 0.0	 0.0	 1	 -30.0	 30.0;
	11	 59	 0.0071	 0.0471	 0.0852	 350.0	 350.0	 350.0	 0.0	 0.0	 1	 -30.0	 30.0;
	12	 2	 0.0008	 0.0377	 0.0	 336.0	 778.0	 778.0	 1.0252	 0.0	 1	 -30.0	 30.0;
	12	 13	 0.1038	 0.3137	 0.0	 89.0	 89.0	 89.0	 1.0	 0.0	 1	 -30.0	 30.0;
	12	 14	 0.1598	 0.6415	 0.0	 45.0	 45.0	 45.0	 1.0	 0.0	 1	 -30.0	 30.0;
	12	 132	 0.4486	 1.5773	 0.0	 18.0	 18.0	 18.0	 1.0	 0.0	 1	 -30.0	 30.0;
	13	 15	 0.044	 0.3227	 0.0	 91.0	 91.0	 91.0	 1.0	 0.0	 1	 -30.0	 30.0;
	13	 62	 0.0098	 0.1221	 0.0	 240.0	 240.0	 240.0	 1.0	 0.0	 1	 -30.0	 30.0;
	14	 72	 0.0107	 0.0828	 0.0	 264.0	 264.0	 264.0	 0.0	 0.0	 1	 -30.0	 30.0;
	14	 113	 0.0063	 0.0382	 0.0	 235.0	 235.0	 235.0	 0.0	 0.0	 1	 -30.0	 30.0;
	14	 132	 0.0057	 0.0374	 0.0	 244.0	 244.0	 244.0	 0.0	 0.0	 1	 -30.0	 30.0;
	15	 58	 0.0115	 0.0732	 0.142	 344.0	 344.0	 344.0	 0.0	 0.0	 1	 -30.0	 30.0;
	15	 60	 0.3907	 1.6753	 0.0	 18.0	 18.0	 18.0	 1.0	 0.0	 1	 -30.0	 30.0;
	15	 62	 0.0084	 0.0588	 0.0	 359.0	 359.0	 359.0	 0.0	 0.0	 1	 -30.0	 30.0;
	15	 63	 0.1704	 1.4555	 0.0	 21.0	 21.0	 21.0	 0.0	 0.0	 1	 -30.0	 30.0;
	16	 17	 0.6017	 1.4373	 0.0	 19.0	 19.0	 19.0	 0.0	 0.0	 1	 -30.0	 30.0;
	16	 18	 0.0297	 0.107	 0.0546	 184.0	 184.0	 184.0	 0.0	 0.0	 1	 -30.0	 30.0;
	16	 27	 0.1574	 0.8871	 0.0	 33.0	 33.0	 33.0	 1.0	 0.0	 1	 -30.0	 30.0;
	16	 126	 0.1053	 0.5132	 0.0	 56.0	 56.0	 56.0	 1.0	 0.0	 1	 -30.0	 30.0;
	16	 127	 0.0958	 0.5276	 0.0	 55.0	 55.0	 55.0	 1.0	 0.0	 1	 -30.0	 30.0;
	17	 18	 0.0213	 0.1013	 0.0642	 209.0	 209.0	 209.0	 0.0	 0.0	 1	 -30.0	 30.0;
	17	 19	 0.2314	 0.7678	 0.0	 37.0	 37.0	 37.0	 0.0	 0.0	 1	 -30.0	 30.0;
	17	 21	 0.0471	 0.2665	 0.0	 109.0	 109.0	 109.0	 0.0	 0.0	 1	 -30.0	 30.0;
	17	 127	 0.0287	 0.2637	 0.0	 111.0	 111.0	 111.0	 1.0	 0.0	 1	 -30.0	 30.0;
	18	 30	 0.0207	 0.1088	 0.052	 220.0	 220.0	 220.0	 0.0	 0.0	 1	 -30.0	 30.0;
	18	 32	 0.0234	 0.122	 0.0582	 219.0	 219.0	 219.0	 0.0	 0.0	 1	 -30.0	 30.0;
	18	 37	 0.0	 0.0456	 0.0	 225.0	 644.0	 644.0	 1.1193	 0.0	 1	 -30.0	 30.0;
	19	 21	 0.3867	 1.9005	 0.0	 16.0	 16.0	 16.0	 0.0	 0.0	 1	 -30.0	 30.0;
	19	 38	 0.0239	 0.125	 0.0596	 219.0	 219.0	 219.0	 0.0	 0.0	 1	 -30.0	 30.0;
	19	 43	 0.0603	 0.2572	 0.0	 112.0	 112.0	 112.0	 0.0	 0.0	 1	 -30.0	 30.0;
	19	 127	 0.1074	 0.6809	 0.0	 43.0	 43.0	 43.0	 1.0	 0.0	 1	 -30.0	 30.0;
	20	 53	 0.0	 0.114	 0.0	 75.0	 258.0	 258.0	 1.0	 0.0	 1	 -30.0	 30.0;
	20	 157	 0.0113	 0.0279	 0.0004	 44.0	 66.0	 66.0	 0.0	 0.0	 1	 -30.0	 30.0;
	21	 22	 0.0312	 0.1629	 0.0778	 177.0	 177.0	 177.0	 0.0	 0.0	 1	 -30.0	 30.0;
	21	 127	 0.0105	 0.6414	 0.0	 46.0	 46.0	 46.0	 1.0	 0.0	 1	 -30.0	 30.0;
	22	 38	 0.014	 0.054	 0.025	 190.0	 190.0	 190.0	 0.0	 0.0	 1	 -30.0	 30.0;
	22	 39	 0.0	 0.0493	 0.0	 225.0	 595.0	 595.0	 1.1081	 0.0	 1	 -30.0	 30.0;
	22	 40	 0.0188	 0.0717	 0.0328	 189.0	 189.0	 189.0	 0.0	 0.0	 1	 -30.0	 30.0;
	22	 41	 0.0172	 0.085	 0.0404	 213.0	 213.0	 213.0	 0.0	 0.0	 1	 -30.0	 30.0;
	23	 24	 0.0174	 0.0511	 0.023	 167.0	 167.0	 167.0	 0.0	 0.0	 1	 -30.0	 30.0;
	23	 60	 0.066	 0.3093	 0.0	 93.0	 93.0	 93.0	 1.0	 0.0	 1	 -30.0	 30.0;
	24	 25	 0.0	 0.034	 0.0	 225.0	 863.0	 863.0	 1.0217	 0.0	 1	 -30.0	 30.0;
	24	 28	 0.0249	 0.0725	 0.0202	 166.0	 166.0	 166.0	 0.0	 0.0	 1	 -30.0	 30.0;
	24	 45	 0.0137	 0.0725	 0.034	 220.0	 220.0	 220.0	 0.0	 0.0	 1	 -30.0	 30.0;
	25	 26	 0.0059	 0.0583	 0.9302	 501.0	 501.0	 501.0	 0.0	 0.0	 1	 -30.0	 30.0;
	25	 27	 0.0044	 0.041	 0.8384	 618.0	 618.0	 618.0	 0.0	 0.0	 1	 -30.0	 30.0;
	26	 74	 0.0063	 0.0607	 0.93	 481.0	 481.0	 481.0	 0.0	 0.0	 1	 -30.0	 30.0;
	26	 75	 0.003	 0.0322	 0.5038	 661.0	 661.0	 661.0	 0.0	 0.0	 1	 -30.0	 30.0;
	26	 76	 0.0	 0.0082	 0.0	 1250.0	 3578.0	 3578.0	 1.04	 0.0	 1	 -30.0	 30.0;
	27	 31	 0.0101	 0.1273	 0.0	 230.0	 230.0	 230.0	 1.0	 0.0	 1	 -30.0	 30.0;
	27	 62	 0.0173	 0.581	 0.0	 51.0	 51.0	 51.0	 1.0	 0.0	 1	 -30.0	 30.0;
	27	 65	 0.0105	 0.2764	 0.0	 107.0	 107.0	 107.0	 0.0	 0.0	 1	 -30.0	 30.0;
	27	 125	 0.035	 1.6845	 0.0	 18.0	 18.0	 18.0	 0.0	 0.0	 1	 -30.0	 30.0;
	27	 126	 0.0022	 0.0225	 0.0	 646.0	 646.0	 646.0	 0.0	 0.0	 1	 -30.0	 30.0;
	27	 127	 0.1506	 1.4355	 0.0	 21.0	 21.0	 21.0	 0.0	 0.0	 1	 -30.0	 30.0;
	28	 29	 0.024	 0.0965	 0.0444	 193.0	 193.0	 193.0	 0.0	 0.0	 1	 -30.0	 30.0;
	29	 30	 0.038	 0.15	 0.0696	 177.0	 190.0	 190.0	 0.0	 0.0	 1	 -30.0	 30.0;
	29	 31	 0.0206	 0.0833	 0.0384	 194.0	 194.0	 194.0	 0.0	 0.0	 1	 -30.0	 30.0;
	30	 32	 0.0249	 0.1005	 0.0458	 194.0	 194.0	 194.0	 0.0	 0.0	 1	 -30.0	 30.0;
	32	 33	 0.0114	 0.0448	 0.0208	 191.0	 191.0	 191.0	 0.0	 0.0	 1	 -30.0	 30.0;
	33	 34	 0.028	 0.114	 0.052	 180.0	 195.0	 195.0	 0.0	 0.0	 1	 -30.0	 30.0;
	33	 35	 0.0216	 0.107	 0.051	 214.0	 214.0	 214.0	 0.0	 0.0	 1	 -30.0	 30.0;
	33	 36	 0.0102	 0.0536	 0.0254	 220.0	 220.0	 220.0	 0.0	 0.0	 1	 -30.0	 30.0;
	34	 40	 0.0397	 0.1517	 0.069	 188.0	 188.0	 188.0	 0.0	 0.0	 1	 -30.0	 30.0;
	34	 77	 0.0235	 0.0896	 0.0408	 189.0	 189.0	 189.0	 0.0	 0.0	 1	 -30.0	 30.0;
	35	 40	 0.0271	 0.1341	 0.0638	 179.0	 213.0	 213.0	 0.0	 0.0	 1	 -30.0	 30.0;
	36	 67	 0.0176	 0.0924	 0.044	 220.0	 220.0	 220.0	 0.0	 0.0	 1	 -30.0	 30.0;
	37	 39	 0.0039	 0.0379	 0.67	 630.0	 630.0	 630.0	 0.0	 0.0	 1	 -30.0	 30.0;
	37	 126	 0.004	 0.0381	 0.67	 624.0	 624.0	 624.0	 0.0	 0.0	 1	 -30.0	 30.0;
	37	 127	 0.004	 0.0403	 0.6832	 641.0	 641.0	 641.0	 0.0	 0.0	 1	 -30.0	 30.0;
	39	 42	 0.002	 0.0186	 0.32	 617.0	 617.0	 617.0	 0.0	 0.0	 1	 -30.0	 30.0;
	40	 81	 0.03	 0.345	 0.0038	 81.0	 85.0	 85.0	 1.0	 0.0	 1	 -30.0	 30.0;
	40	 82	 0.004	 0.019	 0.0108	 209.0	 209.0	 209.0	 0.0	 0.0	 1	 -30.0	 30.0;
	41	 81	 0.037	 0.372	 0.0058	 79.0	 79.0	 79.0	 1.0	 0.0	 1	 -30.0	 30.0;
	41	 83	 0.0052	 0.0256	 0.0124	 213.0	 213.0	 213.0	 0.0	 0.0	 1	 -30.0	 30.0;
	41	 84	 0.0057	 0.058	 0.0292	 301.0	 301.0	 301.0	 0.0	 0.0	 1	 -30.0	 30.0;
	42	 109	 0.0019	 0.0196	 0.333	 648.0	 648.0	 648.0	 0.0	 0.0	 1	 -30.0	 30.0;
	43	 44	 0.0188	 0.0751	 0.0348	 193.0	 193.0	 193.0	 0.0	 0.0	 1	 -30.0	 30.0;
	43	 103	 0.0324	 0.1702	 0.0	 170.0	 170.0	 170.0	 0.0	 0.0	 1	 -30.0	 30.0;
	43	 124	 0.0293	 0.1766	 0.0	 164.0	 164.0	 164.0	 1.0	 0.0	 1	 -30.0	 30.0;
	43	 125	 0.1449	 0.6509	 0.0	 44.0	 44.0	 44.0	 1.0	 0.0	 1	 -30.0	 30.0;
	44	 102	 0.013	 0.05	 0.0236	 180.0	 189.0	 189.0	 0.0	 0.0	 1	 -30.0	 30.0;
	44	 103	 0.0127	 0.051	 0.0244	 180.0	 193.0	 193.0	 0.0	 0.0	 1	 -30.0	 30.0;
	45	 54	 0.0108	 0.057	 0.0272	 220.0	 220.0	 220.0	 0.0	 0.0	 1	 -30.0	 30.0;
	46	 47	 0.031	 0.1378	 0.0622	 177.0	 203.0	 203.0	 0.0	 0.0	 1	 -30.0	 30.0;
	47	 48	 0.0251	 0.1114	 0.0502	 177.0	 203.0	 203.0	 0.0	 0.0	 1	 -30.0	 30.0;
	47	 49	 0.003	 0.012	 0.0054	 193.0	 193.0	 193.0	 0.0	 0.0	 1	 -30.0	 30.0;
	48	 50	 0.0336	 0.166	 0.078	 174.0	 174.0	 174.0	 0.0	 0.0	 1	 -30.0	 30.0;
	48	 51	 0.042	 0.13	 0.057	 171.0	 171.0	 171.0	 0.0	 0.0	 1	 -30.0	 30.0;
	48	 52	 0.054	 0.168	 0.074	 167.0	 167.0	 167.0	 0.0	 0.0	 1	 -30.0	 30.0;
	49	 87	 0.014	 0.068	 0.0266	 423.0	 423.0	 423.0	 1.0	 0.0	 1	 -30.0	 30.0;
	50	 51	 0.03	 0.09	 0.041	 168.0	 168.0	 168.0	 0.0	 0.0	 1	 -30.0	 30.0;
	50	 123	 0.4071	 1.8543	 0.0	 16.0	 16.0	 16.0	 0.0	 0.0	 1	 -30.0	 30.0;
	50	 125	 0.1337	 0.6031	 0.0	 48.0	 48.0	 48.0	 1.0	 0.0	 1	 -30.0	 30.0;
	51	 141	 0.0323	 0.1	 0.0442	 171.0	 171.0	 171.0	 0.0	 0.0	 1	 -30.0	 30.0;
	52	 79	 0.0623	 0.2126	 0.094	 133.0	 133.0	 133.0	 0.0	 0.0	 1	 -30.0	 30.0;
	52	 106	 0.0231	 0.0717	 0.0314	 171.0	 171.0	 171.0	 0.0	 0.0	 1	 -30.0	 30.0;
	52	 116	 0.006	 0.0487	 0.0256	 270.0	 270.0	 270.0	 0.0	 0.0	 1	 -30.0	 30.0;
	52	 117	 0.0117	 0.0493	 0.023	 198.0	 198.0	 198.0	 0.0	 0.0	 1	 -30.0	 30.0;
	52	 118	 0.0	 0.052	 0.0	 200.0	 565.0	 565.0	 1.0429	 0.0	 1	 -30.0	 30.0;
	53	 11	 0.0005	 0.02	 0.0	 375.0	 1467.0	 1467.0	 1.0	 0.0	 1	 -30.0	 30.0;
	53	 54	 0.0275	 0.1961	 0.0956	 149.0	 149.0	 149.0	 0.0	 0.0	 1	 -30.0	 30.0;
	53	 55	 0.0005	 0.0026	 0.0022	 219.0	 219.0	 219.0	 0.0	 0.0	 1	 -30.0	 30.0;
	54	 56	 0.0174	 0.091	 0.043	 219.0	 219.0	 219.0	 0.0	 0.0	 1	 -30.0	 30.0;
	54	 57	 0.025	 0.1237	 0.0588	 213.0	 213.0	 213.0	 0.0	 0.0	 1	 -30.0	 30.0;
	55	 57	 0.0462	 0.1763	 0.0802	 161.0	 161.0	 161.0	 0.0	 0.0	 1	 -30.0	 30.0;
	55	 149	 0.0153	 0.0671	 0.0312	 202.0	 202.0	 202.0	 0.0	 0.0	 1	 -30.0	 30.0;
	55	 162	 0.004	 0.0189	 0.0098	 209.0	 209.0	 209.0	 0.0	 0.0	 1	 -30.0	 30.0;
	56	 67	 0.017	 0.0894	 0.0424	 220.0	 220.0	 220.0	 0.0	 0.0	 1	 -30.0	 30.0;
	57	 80	 0.0272	 0.1037	 0.0472	 180.0	 189.0	 189.0	 0.0	 0.0	 1	 -30.0	 30.0;
	58	 61	 0.0133	 0.1018	 0.1842	 276.0	 286.0	 286.0	 0.0	 0.0	 1	 -30.0	 30.0;
	59	 61	 0.0106	 0.0706	 0.121	 351.0	 351.0	 351.0	 0.0	 0.0	 1	 -30.0	 30.0;
	60	 61	 0.0027	 0.0653	 -0.0022	 100.0	 449.0	 449.0	 1.0252	 0.0	 1	 -30.0	 30.0;
	60	 61	 0.002	 0.0393	 0.0	 200.0	 746.0	 746.0	 1.0252	 0.0	 1	 -30.0	 30.0;
	60	 62	 0.3674	 0.964	 0.0	 29.0	 29.0	 29.0	 1.0	 0.0	 1	 -30.0	 30.0;
	60	 65	 0.1041	 0.4144	 0.0	 69.0	 69.0	 69.0	 1.0	 0.0	 1	 -30.0	 30.0;
	60	 126	 0.5367	 1.8295	 0.0	 16.0	 16.0	 16.0	 1.0	 0.0	 1	 -30.0	 30.0;
	61	 62	 0.0296	 0.2275	 0.3996	 128.0	 128.0	 128.0	 0.0	 0.0	 1	 -30.0	 30.0;
	61	 63	 0.0043	 0.0422	 0.0764	 345.0	 422.0	 422.0	 0.0	 0.0	 1	 -30.0	 30.0;
	62	 63	 0.0158	 0.1702	 0.0	 172.0	 172.0	 172.0	 0.0	 0.0	 1	 -30.0	 30.0;
	62	 65	 0.004	 0.074	 0.0	 396.0	 396.0	 396.0	 1.0	 0.0	 1	 -30.0	 30.0;
	62	 126	 0.0044	 0.2969	 0.0	 99.0	 99.0	 99.0	 1.0	 0.0	 1	 -30.0	 30.0;
	63	 65	 0.2409	 1.96	 0.0	 15.0	 15.0	 15.0	 1.0	 0.0	 1	 -30.0	 30.0;
	64	 65	 0.005	 0.0571	 0.9098	 512.0	 512.0	 512.0	 0.0	 0.0	 1	 -30.0	 30.0;
	64	 66	 0.0033	 0.0381	 0.6066	 684.0	 684.0	 684.0	 0.0	 0.0	 1	 -30.0	 30.0;
	65	 126	 0.0031	 0.1536	 0.0	 191.0	 191.0	 191.0	 0.0	 0.0	 1	 -30.0	 30.0;
	66	 11	 0.0	 0.0118	 0.0	 500.0	 2486.0	 2486.0	 1.0	 0.0	 1	 -30.0	 30.0;
	67	 68	 0.0193	 0.1013	 0.0482	 220.0	 220.0	 220.0	 0.0	 0.0	 1	 -30.0	 30.0;
	68	 69	 0.0068	 0.0353	 0.0168	 218.0	 218.0	 218.0	 0.0	 0.0	 1	 -30.0	 30.0;
	69	 77	 0.0098	 0.0374	 0.017	 189.0	 189.0	 189.0	 0.0	 0.0	 1	 -30.0	 30.0;
	69	 78	 0.0114	 0.0434	 0.0196	 180.0	 188.0	 188.0	 0.0	 0.0	 1	 -30.0	 30.0;
	69	 79	 0.0052	 0.0433	 0.022	 273.0	 273.0	 273.0	 0.0	 0.0	 1	 -30.0	 30.0;
	70	 73	 0.0	 0.0197	 0.0	 495.0	 1489.0	 1489.0	 1.0398	 0.0	 1	 -30.0	 30.0;
	70	 149	 0.0002	 0.0018	 0.001	 284.0	 284.0	 284.0	 0.0	 0.0	 1	 -30.0	 30.0;
	70	 149	 0.0002	 0.0018	 0.001	 284.0	 284.0	 284.0	 0.0	 0.0	 1	 -30.0	 30.0;
	71	 85	 0.0304	 0.1506	 0.0716	 191.0	 191.0	 191.0	 0.0	 0.0	 1	 -30.0	 30.0;
	71	 150	 0.0196	 0.097	 0.0462	 213.0	 213.0	 213.0	 0.0	 0.0	 1	 -30.0	 30.0;
	72	 113	 0.0022	 0.013	 0.0	 232.0	 232.0	 232.0	 0.0	 0.0	 1	 -30.0	 30.0;
	72	 132	 0.0028	 0.0168	 0.0	 234.0	 234.0	 234.0	 0.0	 0.0	 1	 -30.0	 30.0;
	72	 152	 0.0385	 0.18	 0.0	 160.0	 160.0	 160.0	 0.0	 0.0	 1	 -30.0	 30.0;
	74	 119	 0.0031	 0.031	 0.4822	 639.0	 639.0	 639.0	 0.0	 0.0	 1	 -30.0	 30.0;
	75	 128	 0.0008	 0.0087	 0.166	 665.0	 665.0	 665.0	 0.0	 0.0	 1	 -30.0	 30.0;
	75	 130	 0.0004	 0.0242	 0.0	 578.0	 1212.0	 1212.0	 1.0249	 0.0	 1	 -30.0	 30.0;
	78	 79	 0.0051	 0.0336	 0.0182	 245.0	 245.0	 245.0	 0.0	 0.0	 1	 -30.0	 30.0;
	78	 80	 0.0244	 0.093	 0.0422	 180.0	 189.0	 189.0	 0.0	 0.0	 1	 -30.0	 30.0;
	79	 74	 0.0	 0.018	 0.0	 500.0	 1630.0	 1630.0	 1.0248	 0.0	 1	 -30.0	 30.0;
	82	 83	 0.0053	 0.0249	 0.013	 208.0	 208.0	 208.0	 0.0	 0.0	 1	 -30.0	 30.0;
	84	 93	 0.0125	 0.0826	 0.0414	 245.0	 245.0	 245.0	 0.0	 0.0	 1	 -30.0	 30.0;
	85	 86	 0.0211	 0.1046	 0.0498	 214.0	 214.0	 214.0	 0.0	 0.0	 1	 -30.0	 30.0;
	86	 87	 0.028	 0.112	 0.0538	 255.0	 255.0	 255.0	 1.0	 0.0	 1	 -30.0	 30.0;
	86	 88	 0.044	 0.228	 0.109	 127.0	 127.0	 127.0	 1.0	 0.0	 1	 -30.0	 30.0;
	88	 96	 0.074	 0.25	 0.0142	 48.0	 113.0	 113.0	 1.0	 0.0	 1	 -30.0	 30.0;
	88	 106	 0.0079	 0.0468	 0.0232	 173.0	 619.0	 619.0	 1.0	 0.0	 1	 -30.0	 30.0;
	89	 86	 0.0	 0.057	 0.0	 90.0	 515.0	 515.0	 1.0252	 0.0	 1	 -30.0	 30.0;
	89	 90	 0.069	 0.134	 0.014	 69.0	 98.0	 98.0	 0.0	 0.0	 1	 -30.0	 30.0;
	90	 96	 0.1837	 0.359	 0.037	 73.0	 73.0	 73.0	 0.0	 0.0	 1	 -30.0	 30.0;
	91	 92	 0.0156	 0.0819	 0.0376	 220.0	 220.0	 220.0	 0.0	 0.0	 1	 -30.0	 30.0;
	91	 93	 0.0143	 0.0895	 0.045	 239.0	 239.0	 239.0	 0.0	 0.0	 1	 -30.0	 30.0;
	91	 94	 0.0145	 0.0957	 0.048	 245.0	 245.0	 245.0	 0.0	 0.0	 1	 -30.0	 30.0;
	92	 102	 0.015	 0.061	 0.0292	 194.0	 194.0	 194.0	 0.0	 0.0	 1	 -30.0	 30.0;
	93	 42	 0.0	 0.026	 0.0	 400.0	 1129.0	 1129.0	 1.0248	 0.0	 1	 -30.0	 30.0;
	93	 108	 0.0	 0.0154	 0.0	 600.0	 1905.0	 1905.0	 1.0503	 0.0	 1	 -30.0	 30.0;
	94	 103	 0.0227	 0.1333	 0.066	 217.0	 217.0	 217.0	 0.0	 0.0	 1	 -30.0	 30.0;
	94	 107	 0.0613	 0.1891	 0.0836	 148.0	 148.0	 148.0	 0.0	 0.0	 1	 -30.0	 30.0;
	94	 109	 0.0	 0.035	 0.0	 300.0	 839.0	 839.0	 1.0248	 0.0	 1	 -30.0	 30.0;
	95	 91	 0.0054	 0.0458	 -0.0036	 250.0	 637.0	 637.0	 1.02	 0.0	 1	 -30.0	 30.0;
	95	 96	 0.087	 0.212	 0.086	 109.0	 109.0	 109.0	 0.0	 0.0	 1	 -30.0	 30.0;
	95	 97	 0.1289	 0.2809	 0.0334	 58.0	 95.0	 95.0	 0.0	 0.0	 1	 -30.0	 30.0;
	95	 98	 0.0071	 0.043	 0.0224	 168.0	 168.0	 168.0	 0.0	 0.0	 1	 -30.0	 30.0;
	95	 99	 0.0	 0.0685	 0.0	 150.0	 429.0	 429.0	 1.0296	 0.0	 1	 -30.0	 30.0;
	96	 100	 0.069	 0.161	 0.0186	 69.0	 107.0	 107.0	 0.0	 0.0	 1	 -30.0	 30.0;
	96	 101	 0.0	 0.1031	 0.0	 96.0	 285.0	 285.0	 1.0296	 0.0	 1	 -30.0	 30.0;
	97	 44	 0.0051	 0.1007	 -0.0025	 84.0	 291.0	 291.0	 1.0252	 0.0	 1	 -30.0	 30.0;
	98	 93	 0.0006	 0.0214	 -0.0341	 504.0	 1371.0	 1371.0	 1.0252	 0.0	 1	 -30.0	 30.0;
	98	 105	 0.1485	 0.293	 0.031	 69.0	 90.0	 90.0	 0.0	 0.0	 1	 -30.0	 30.0;
	100	 104	 0.062	 0.145	 0.0166	 69.0	 107.0	 107.0	 0.0	 0.0	 1	 -30.0	 30.0;
	103	 123	 0.182	 0.751	 0.0	 38.0	 38.0	 38.0	 0.0	 0.0	 1	 -30.0	 30.0;
	103	 124	 0.0002	 0.0167	 0.0	 1757.0	 1757.0	 1757.0	 1.0	 0.0	 1	 -30.0	 30.0;
	103	 125	 0.0279	 0.1972	 0.0	 148.0	 148.0	 148.0	 1.0	 0.0	 1	 -30.0	 30.0;
	104	 34	 0.008	 0.0637	 -0.0033	 106.0	 457.0	 457.0	 1.0	 0.0	 1	 -30.0	 30.0;
	105	 38	 0.0	 0.116	 0.0	 45.0	 253.0	 253.0	 1.0252	 0.0	 1	 -30.0	 30.0;
	106	 107	 0.0196	 0.0611	 0.0268	 171.0	 171.0	 171.0	 0.0	 0.0	 1	 -30.0	 30.0;
	107	 122	 0.013	 0.0621	 0.0296	 210.0	 210.0	 210.0	 0.0	 0.0	 1	 -30.0	 30.0;
	109	 119	 0.006	 0.0577	 0.929	 506.0	 506.0	 506.0	 0.0	 0.0	 1	 -30.0	 30.0;
	109	 124	 0.002	 0.0222	 0.3782	 671.0	 671.0	 671.0	 0.0	 0.0	 1	 -30.0	 30.0;
	109	 125	 0.007	 0.062	 1.0	 471.0	 471.0	 471.0	 0.0	 0.0	 1	 -30.0	 30.0;
	110	 111	 0.023	 0.099	 0.046	 180.0	 200.0	 200.0	 0.0	 0.0	 1	 -30.0	 30.0;
	110	 112	 0.0	 0.0185	 0.0	 500.0	 1586.0	 1586.0	 1.0	 0.0	 1	 -30.0	 30.0;
	110	 114	 0.0	 0.0768	 0.0	 150.0	 382.0	 382.0	 1.0398	 0.0	 1	 -30.0	 30.0;
	110	 134	 0.0032	 0.0256	 0.0134	 268.0	 268.0	 268.0	 0.0	 0.0	 1	 -30.0	 30.0;
	110	 141	 0.021	 0.0649	 0.0288	 171.0	 171.0	 171.0	 0.0	 0.0	 1	 -30.0	 30.0;
	111	 115	 0.0527	 0.2215	 0.103	 129.0	 129.0	 129.0	 0.0	 0.0	 1	 -30.0	 30.0;
	112	 120	 0.0005	 0.0044	 0.072	 601.0	 601.0	 601.0	 0.0	 0.0	 1	 -30.0	 30.0;
	112	 121	 0.0	 0.019	 0.0	 720.0	 1544.0	 1544.0	 1.0499	 0.0	 1	 -30.0	 30.0;
	113	 132	 0.0459	 0.2911	 0.0	 100.0	 100.0	 100.0	 0.0	 0.0	 1	 -30.0	 30.0;
	113	 134	 0.0008	 0.0072	 0.0038	 284.0	 284.0	 284.0	 0.0	 0.0	 1	 -30.0	 30.0;
	115	 117	 0.0019	 0.0154	 0.033	 270.0	 270.0	 270.0	 0.0	 0.0	 1	 -30.0	 30.0;
	116	 117	 0.0048	 0.0391	 0.0214	 271.0	 271.0	 271.0	 0.0	 0.0	 1	 -30.0	 30.0;
	116	 119	 0.0	 0.009	 0.0	 1000.0	 3260.0	 3260.0	 1.0248	 0.0	 1	 -30.0	 30.0;
	116	 147	 0.0035	 0.0286	 0.0156	 271.0	 271.0	 271.0	 0.0	 0.0	 1	 -30.0	 30.0;
	117	 147	 0.0022	 0.0175	 0.01	 268.0	 268.0	 268.0	 0.0	 0.0	 1	 -30.0	 30.0;
	120	 14	 0.0003	 0.0188	 0.0	 500.0	 1561.0	 1561.0	 0.9751	 0.0	 1	 -30.0	 30.0;
	120	 128	 0.0004	 0.0051	 0.1	 717.0	 717.0	 717.0	 0.0	 0.0	 1	 -30.0	 30.0;
	120	 129	 0.0003	 0.0038	 0.0652	 715.0	 715.0	 715.0	 0.0	 0.0	 1	 -30.0	 30.0;
	122	 123	 0.0175	 0.0835	 0.0398	 210.0	 210.0	 210.0	 0.0	 0.0	 1	 -30.0	 30.0;
	123	 125	 0.0423	 0.2441	 0.0	 119.0	 119.0	 119.0	 1.0	 0.0	 1	 -30.0	 30.0;
	124	 125	 0.0113	 0.1585	 0.0	 185.0	 185.0	 185.0	 0.0	 0.0	 1	 -30.0	 30.0;
	124	 126	 0.0577	 0.8256	 0.0	 36.0	 36.0	 36.0	 0.0	 0.0	 1	 -30.0	 30.0;
	125	 126	 0.0201	 0.5915	 0.0	 50.0	 50.0	 50.0	 0.0	 0.0	 1	 -30.0	 30.0;
	126	 127	 0.0877	 0.7049	 0.0	 42.0	 42.0	 42.0	 0.0	 0.0	 1	 -30.0	 30.0;
	128	 72	 0.0004	 0.018	 0.0	 500.0	 1630.0	 1630.0	 1.0	 0.0	 1	 -30.0	 30.0;
	129	 132	 0.0004	 0.0198	 0.0	 500.0	 1482.0	 1482.0	 1.0	 0.0	 1	 -30.0	 30.0;
	133	 134	 0.0	 0.041	 0.0	 160.0	 716.0	 716.0	 1.0249	 0.0	 1	 -30.0	 30.0;
	133	 135	 0.0109	 0.0259	 0.0004	 44.0	 65.0	 65.0	 0.0	 0.0	 1	 -30.0	 30.0;
	133	 136	 0.039	 0.099	 0.0016	 39.0	 67.0	 67.0	 0.0	 0.0	 1	 -30.0	 30.0;
	133	 137	 0.0134	 0.0504	 0.001	 60.0	 81.0	 81.0	 0.0	 0.0	 1	 -30.0	 30.0;
	135	 138	 0.0466	 0.1182	 0.002	 39.0	 67.0	 67.0	 0.0	 0.0	 1	 -30.0	 30.0;
	136	 139	 0.026	 0.065	 0.001	 39.0	 66.0	 66.0	 0.0	 0.0	 1	 -30.0	 30.0;
	137	 140	 0.0041	 0.0156	 0.0004	 60.0	 81.0	 81.0	 0.0	 0.0	 1	 -30.0	 30.0;
	138	 110	 0.0	 0.041	 0.0	 160.0	 716.0	 716.0	 1.0	 0.0	 1	 -30.0	 30.0;
	138	 139	 0.026	 0.065	 0.001	 39.0	 66.0	 66.0	 0.0	 0.0	 1	 -30.0	 30.0;
	138	 140	 0.0251	 0.0941	 0.0018	 60.0	 80.0	 80.0	 0.0	 0.0	 1	 -30.0	 30.0;
	138	 145	 0.0923	 0.2338	 0.0038	 39.0	 67.0	 67.0	 0.0	 0.0	 1	 -30.0	 30.0;
	142	 51	 0.0	 0.1728	 0.0	 83.0	 170.0	 170.0	 1.07	 0.0	 1	 -30.0	 30.0;
	142	 143	 0.1582	 0.3919	 0.0068	 44.0	 66.0	 66.0	 0.0	 0.0	 1	 -30.0	 30.0;
	142	 146	 0.1618	 0.3861	 0.007	 44.0	 65.0	 65.0	 0.0	 0.0	 1	 -30.0	 30.0;
	143	 144	 0.0927	 0.2322	 0.002	 44.0	 66.0	 66.0	 0.0	 0.0	 1	 -30.0	 30.0;
	144	 141	 0.0	 0.082	 0.0	 80.0	 358.0	 358.0	 1.0249	 0.0	 1	 -30.0	 30.0;
	144	 145	 0.089	 0.221	 0.0032	 39.0	 66.0	 66.0	 0.0	 0.0	 1	 -30.0	 30.0;
	144	 146	 0.068	 0.2906	 0.0058	 60.0	 86.0	 86.0	 0.0	 0.0	 1	 -30.0	 30.0;
	148	 116	 0.0	 0.041	 0.0	 160.0	 716.0	 716.0	 1.0	 0.0	 1	 -30.0	 30.0;
	149	 26	 0.0	 0.0386	 0.0	 300.0	 760.0	 760.0	 1.0	 0.0	 1	 -30.0	 30.0;
	149	 26	 0.0	 0.0386	 0.0	 300.0	 760.0	 760.0	 1.0	 0.0	 1	 -30.0	 30.0;
	149	 150	 0.001	 0.0085	 0.002	 276.0	 276.0	 276.0	 0.0	 0.0	 1	 -30.0	 30.0;
	149	 151	 0.0039	 0.0262	 0.0138	 247.0	 247.0	 247.0	 0.0	 0.0	 1	 -30.0	 30.0;
	149	 152	 0.0253	 0.1168	 0.0544	 207.0	 207.0	 207.0	 0.0	 0.0	 1	 -30.0	 30.0;
	151	 161	 0.0021	 0.0138	 0.0074	 244.0	 244.0	 244.0	 0.0	 0.0	 1	 -30.0	 30.0;
	153	 70	 0.0	 0.0916	 0.0	 93.0	 321.0	 321.0	 1.0	 0.0	 1	 -30.0	 30.0;
	153	 70	 0.0	 0.0916	 0.0	 93.0	 321.0	 321.0	 1.0	 0.0	 1	 -30.0	 30.0;
	153	 154	 0.071	 0.2841	 0.0054	 50.0	 83.0	 83.0	 0.0	 0.0	 1	 -30.0	 30.0;
	153	 155	 0.043	 0.1856	 0.0038	 66.0	 86.0	 86.0	 0.0	 0.0	 1	 -30.0	 30.0;
	154	 156	 0.0155	 0.0379	 0.0008	 50.0	 66.0	 66.0	 0.0	 0.0	 1	 -30.0	 30.0;
	154	 160	 0.0102	 0.0429	 0.001	 50.0	 85.0	 85.0	 0.0	 0.0	 1	 -30.0	 30.0;
	155	 156	 0.0176	 0.0822	 0.0014	 66.0	 89.0	 89.0	 0.0	 0.0	 1	 -30.0	 30.0;
	156	 157	 0.053	 0.1273	 0.0022	 33.0	 65.0	 65.0	 0.0	 0.0	 1	 -30.0	 30.0;
	157	 55	 0.0	 0.0827	 0.0	 150.0	 355.0	 355.0	 1.0	 0.0	 1	 -30.0	 30.0;
	157	 158	 0.0489	 0.1404	 0.0028	 50.0	 71.0	 71.0	 0.0	 0.0	 1	 -30.0	 30.0;
	158	 159	 0.0339	 0.0664	 0.0012	 50.0	 59.0	 59.0	 0.0	 0.0	 1	 -30.0	 30.0;
	159	 160	 0.019	 0.0811	 0.012	 50.0	 86.0	 86.0	 0.0	 0.0	 1	 -30.0	 30.0;
	161	 162	 0.0022	 0.0103	 0.0054	 208.0	 208.0	 208.0	 0.0	 0.0	 1	 -30.0	 30.0;
];

% INFO    : === Translation Options ===
% INFO    : Load Model:                  from file ./pglib_opf_case162_ieee_dtc.m.api.sol
% INFO    : Gen Active Capacity Model:   stat
% INFO    : Gen Reactive Capacity Model: al50ag
% INFO    : Gen Active Cost Model:       stat
% INFO    : 
% INFO    : === Load Replacement Notes ===
% INFO    : Bus 3	: Pd=370.0, Qd=96.9 -> Pd=406.38, Qd=96.90
% INFO    : Bus 8	: Pd=398.0, Qd=0.0 -> Pd=398.00, Qd=0.00
% INFO    : Bus 10	: Pd=226.0, Qd=0.0 -> Pd=226.00, Qd=0.00
% INFO    : Bus 12	: Pd=193.0, Qd=0.0 -> Pd=193.00, Qd=0.00
% INFO    : Bus 13	: Pd=204.0, Qd=0.0 -> Pd=204.00, Qd=0.00
% INFO    : Bus 14	: Pd=381.0, Qd=0.0 -> Pd=381.00, Qd=0.00
% INFO    : Bus 15	: Pd=-80.0, Qd=0.0 -> Pd=-80.00, Qd=0.00
% INFO    : Bus 16	: Pd=-54.2, Qd=0.0 -> Pd=-54.20, Qd=0.00
% INFO    : Bus 17	: Pd=-116.5, Qd=0.0 -> Pd=-116.50, Qd=0.00
% INFO    : Bus 18	: Pd=34.4, Qd=11.67 -> Pd=37.78, Qd=11.67
% INFO    : Bus 19	: Pd=64.4, Qd=0.0 -> Pd=64.40, Qd=0.00
% INFO    : Bus 20	: Pd=37.9, Qd=12.5 -> Pd=41.63, Qd=12.50
% INFO    : Bus 21	: Pd=-69.8, Qd=0.0 -> Pd=-69.80, Qd=0.00
% INFO    : Bus 22	: Pd=17.39, Qd=5.27 -> Pd=19.10, Qd=5.27
% INFO    : Bus 23	: Pd=63.5, Qd=0.0 -> Pd=63.50, Qd=0.00
% INFO    : Bus 27	: Pd=324.0, Qd=57.9 -> Pd=355.86, Qd=57.90
% INFO    : Bus 28	: Pd=38.47, Qd=13.17 -> Pd=42.25, Qd=13.17
% INFO    : Bus 29	: Pd=28.31, Qd=9.03 -> Pd=31.09, Qd=9.03
% INFO    : Bus 30	: Pd=101.2, Qd=32.52 -> Pd=111.15, Qd=32.52
% INFO    : Bus 31	: Pd=72.5, Qd=0.0 -> Pd=72.50, Qd=0.00
% INFO    : Bus 32	: Pd=52.7, Qd=15.06 -> Pd=57.88, Qd=15.06
% INFO    : Bus 33	: Pd=45.17, Qd=15.06 -> Pd=49.61, Qd=15.06
% INFO    : Bus 34	: Pd=14.18, Qd=5.25 -> Pd=15.57, Qd=5.25
% INFO    : Bus 35	: Pd=54.48, Qd=14.63 -> Pd=59.84, Qd=14.63
% INFO    : Bus 36	: Pd=31.96, Qd=8.68 -> Pd=35.10, Qd=8.68
% INFO    : Bus 38	: Pd=14.76, Qd=4.08 -> Pd=16.21, Qd=4.08
% INFO    : Bus 40	: Pd=52.88, Qd=17.6 -> Pd=58.08, Qd=17.60
% INFO    : Bus 41	: Pd=39.2, Qd=12.8 -> Pd=43.05, Qd=12.80
% INFO    : Bus 43	: Pd=41.5, Qd=0.0 -> Pd=41.50, Qd=0.00
% INFO    : Bus 44	: Pd=16.32, Qd=3.71 -> Pd=17.92, Qd=3.71
% INFO    : Bus 45	: Pd=20.02, Qd=5.41 -> Pd=21.99, Qd=5.41
% INFO    : Bus 46	: Pd=65.31, Qd=22.3 -> Pd=71.73, Qd=22.30
% INFO    : Bus 47	: Pd=4.82, Qd=1.56 -> Pd=5.29, Qd=1.56
% INFO    : Bus 48	: Pd=33.76, Qd=22.86 -> Pd=37.08, Qd=22.86
% INFO    : Bus 49	: Pd=6.82, Qd=1.78 -> Pd=7.49, Qd=1.78
% INFO    : Bus 50	: Pd=99.7, Qd=0.0 -> Pd=99.70, Qd=0.00
% INFO    : Bus 52	: Pd=218.2, Qd=42.8 -> Pd=239.65, Qd=42.80
% INFO    : Bus 54	: Pd=70.34, Qd=29.57 -> Pd=77.26, Qd=29.57
% INFO    : Bus 56	: Pd=25.29, Qd=7.26 -> Pd=27.78, Qd=7.26
% INFO    : Bus 57	: Pd=48.48, Qd=15.61 -> Pd=53.25, Qd=15.61
% INFO    : Bus 59	: Pd=84.43, Qd=27.05 -> Pd=92.73, Qd=27.05
% INFO    : Bus 60	: Pd=244.0, Qd=0.0 -> Pd=244.00, Qd=0.00
% INFO    : Bus 62	: Pd=-865.6, Qd=0.0 -> Pd=-865.60, Qd=0.00
% INFO    : Bus 63	: Pd=59.1, Qd=0.0 -> Pd=59.10, Qd=0.00
% INFO    : Bus 65	: Pd=-26.3, Qd=0.0 -> Pd=-26.30, Qd=0.00
% INFO    : Bus 67	: Pd=22.54, Qd=7.03 -> Pd=24.76, Qd=7.03
% INFO    : Bus 68	: Pd=40.42, Qd=12.68 -> Pd=44.39, Qd=12.68
% INFO    : Bus 71	: Pd=29.87, Qd=11.93 -> Pd=32.81, Qd=11.93
% INFO    : Bus 72	: Pd=427.0, Qd=0.0 -> Pd=427.00, Qd=0.00
% INFO    : Bus 77	: Pd=26.41, Qd=8.78 -> Pd=29.01, Qd=8.78
% INFO    : Bus 78	: Pd=79.12, Qd=0.0 -> Pd=79.12, Qd=0.00
% INFO    : Bus 80	: Pd=15.76, Qd=5.25 -> Pd=17.31, Qd=5.25
% INFO    : Bus 81	: Pd=50.88, Qd=16.8 -> Pd=55.88, Qd=16.80
% INFO    : Bus 82	: Pd=62.28, Qd=20.26 -> Pd=68.40, Qd=20.26
% INFO    : Bus 84	: Pd=37.9, Qd=9.49 -> Pd=41.63, Qd=9.49
% INFO    : Bus 85	: Pd=40.52, Qd=11.26 -> Pd=44.50, Qd=11.26
% INFO    : Bus 86	: Pd=50.73, Qd=13.35 -> Pd=55.72, Qd=13.35
% INFO    : Bus 87	: Pd=16.91, Qd=4.23 -> Pd=18.57, Qd=4.23
% INFO    : Bus 88	: Pd=60.6, Qd=4.44 -> Pd=66.56, Qd=4.44
% INFO    : Bus 90	: Pd=50.21, Qd=16.76 -> Pd=55.15, Qd=16.76
% INFO    : Bus 91	: Pd=51.24, Qd=12.83 -> Pd=56.28, Qd=12.83
% INFO    : Bus 92	: Pd=36.12, Qd=9.05 -> Pd=39.67, Qd=9.05
% INFO    : Bus 93	: Pd=103.8, Qd=34.56 -> Pd=114.01, Qd=34.56
% INFO    : Bus 94	: Pd=164.0, Qd=6.49 -> Pd=180.12, Qd=6.49
% INFO    : Bus 95	: Pd=117.2, Qd=39.01 -> Pd=128.72, Qd=39.01
% INFO    : Bus 96	: Pd=119.2, Qd=0.0 -> Pd=119.20, Qd=0.00
% INFO    : Bus 97	: Pd=22.84, Qd=5.71 -> Pd=25.09, Qd=5.71
% INFO    : Bus 98	: Pd=151.1, Qd=50.35 -> Pd=165.96, Qd=50.35
% INFO    : Bus 100	: Pd=23.21, Qd=6.9 -> Pd=25.49, Qd=6.90
% INFO    : Bus 102	: Pd=16.54, Qd=4.08 -> Pd=18.17, Qd=4.08
% INFO    : Bus 103	: Pd=322.0, Qd=0.0 -> Pd=322.00, Qd=0.00
% INFO    : Bus 104	: Pd=31.52, Qd=10.46 -> Pd=34.62, Qd=10.46
% INFO    : Bus 105	: Pd=24.84, Qd=6.23 -> Pd=27.28, Qd=6.23
% INFO    : Bus 107	: Pd=35.41, Qd=5.41 -> Pd=38.89, Qd=5.41
% INFO    : Bus 111	: Pd=65.41, Qd=16.72 -> Pd=71.84, Qd=16.72
% INFO    : Bus 113	: Pd=32.7, Qd=0.0 -> Pd=32.70, Qd=0.00
% INFO    : Bus 115	: Pd=17.32, Qd=3.34 -> Pd=19.02, Qd=3.34
% INFO    : Bus 116	: Pd=56.08, Qd=11.2 -> Pd=61.59, Qd=11.20
% INFO    : Bus 117	: Pd=101.9, Qd=20.06 -> Pd=111.92, Qd=20.06
% INFO    : Bus 122	: Pd=47.28, Qd=9.36 -> Pd=51.93, Qd=9.36
% INFO    : Bus 123	: Pd=165.0, Qd=0.0 -> Pd=165.00, Qd=0.00
% INFO    : Bus 124	: Pd=-571.0, Qd=90.9 -> Pd=-571.00, Qd=90.90
% INFO    : Bus 125	: Pd=2000.0, Qd=0.0 -> Pd=2000.00, Qd=0.00
% INFO    : Bus 126	: Pd=-467.0, Qd=0.0 -> Pd=-467.00, Qd=0.00
% INFO    : Bus 127	: Pd=-52.6, Qd=0.0 -> Pd=-52.60, Qd=0.00
% INFO    : Bus 132	: Pd=159.0, Qd=0.0 -> Pd=159.00, Qd=0.00
% INFO    : Bus 133	: Pd=30.1, Qd=6.02 -> Pd=33.06, Qd=6.02
% INFO    : Bus 134	: Pd=17.46, Qd=3.34 -> Pd=19.18, Qd=3.34
% INFO    : Bus 135	: Pd=20.06, Qd=4.01 -> Pd=22.03, Qd=4.01
% INFO    : Bus 136	: Pd=20.06, Qd=4.01 -> Pd=22.03, Qd=4.01
% INFO    : Bus 137	: Pd=20.06, Qd=4.01 -> Pd=22.03, Qd=4.01
% INFO    : Bus 139	: Pd=10.1, Qd=2.01 -> Pd=11.09, Qd=2.01
% INFO    : Bus 140	: Pd=13.58, Qd=2.68 -> Pd=14.92, Qd=2.68
% INFO    : Bus 142	: Pd=27.09, Qd=5.35 -> Pd=29.75, Qd=5.35
% INFO    : Bus 143	: Pd=21.07, Qd=4.01 -> Pd=23.14, Qd=4.01
% INFO    : Bus 144	: Pd=12.37, Qd=2.01 -> Pd=13.59, Qd=2.01
% INFO    : Bus 145	: Pd=10.83, Qd=2.21 -> Pd=11.89, Qd=2.21
% INFO    : Bus 146	: Pd=21.33, Qd=4.01 -> Pd=23.43, Qd=4.01
% INFO    : Bus 147	: Pd=216.4, Qd=42.8 -> Pd=237.68, Qd=42.80
% INFO    : Bus 148	: Pd=120.0, Qd=24.0 -> Pd=131.80, Qd=24.00
% INFO    : Bus 150	: Pd=4.8, Qd=1.6 -> Pd=5.27, Qd=1.60
% INFO    : Bus 151	: Pd=24.0, Qd=8.0 -> Pd=26.36, Qd=8.00
% INFO    : Bus 152	: Pd=6.0, Qd=0.0 -> Pd=6.00, Qd=0.00
% INFO    : Bus 153	: Pd=4.0, Qd=1.6 -> Pd=4.39, Qd=1.60
% INFO    : Bus 154	: Pd=28.0, Qd=9.6 -> Pd=30.75, Qd=9.60
% INFO    : Bus 155	: Pd=12.0, Qd=4.0 -> Pd=13.18, Qd=4.00
% INFO    : Bus 156	: Pd=8.0, Qd=2.4 -> Pd=8.79, Qd=2.40
% INFO    : Bus 157	: Pd=32.0, Qd=10.4 -> Pd=35.15, Qd=10.40
% INFO    : Bus 158	: Pd=16.0, Qd=5.6 -> Pd=17.57, Qd=5.60
% INFO    : Bus 159	: Pd=8.0, Qd=2.4 -> Pd=8.79, Qd=2.40
% INFO    : Bus 160	: Pd=14.4, Qd=4.8 -> Pd=15.82, Qd=4.80
% INFO    : Bus 161	: Pd=32.0, Qd=10.4 -> Pd=35.15, Qd=10.40
% INFO    : Bus 162	: Pd=20.0, Qd=6.4 -> Pd=21.97, Qd=6.40
% INFO    : 
% INFO    : === Generator Setpoint Replacement Notes ===
% INFO    : Gen at bus 6	: Pg=573.5, Qg=100.0 -> Pg=874.0, Qg=212.0
% INFO    : Gen at bus 73	: Pg=225.5, Qg=77.0 -> Pg=400.0, Qg=166.0
% INFO    : Gen at bus 76	: Pg=563.5, Qg=197.0 -> Pg=1248.0, Qg=66.0
% INFO    : Gen at bus 99	: Pg=183.0, Qg=7.5 -> Pg=143.0, Qg=47.0
% INFO    : Gen at bus 101	: Pg=55.0, Qg=7.1 -> Pg=82.0, Qg=51.0
% INFO    : Gen at bus 108	: Pg=559.5, Qg=0.0 -> Pg=598.0, Qg=44.0
% INFO    : Gen at bus 114	: Pg=154.0, Qg=4.0 -> Pg=143.0, Qg=46.0
% INFO    : Gen at bus 118	: Pg=227.5, Qg=28.0 -> Pg=175.0, Qg=98.0
% INFO    : Gen at bus 121	: Pg=350.0, Qg=65.0 -> Pg=693.0, Qg=194.0
% INFO    : Gen at bus 125	: Pg=1263.0, Qg=82.0 -> Pg=2233.0, Qg=112.0
% INFO    : Gen at bus 130	: Pg=796.5, Qg=72.0 -> Pg=571.0, Qg=91.0
% INFO    : Gen at bus 131	: Pg=565.0, Qg=27.5 -> Pg=690.0, Qg=169.0
% INFO    : 
% INFO    : === Generator Reactive Capacity Atleast Setpoint Value Notes ===
% INFO    : Gen at bus 6	: Qg 212.0, Qmin -200.0, Qmax 400.0 -> Qmin -254.4, Qmax 400.0
% INFO    : Gen at bus 73	: Qg 166.0, Qmin -72.0, Qmax 226.0 -> Qmin -199.2, Qmax 226.0
% INFO    : Gen at bus 101	: Qg 51.0, Qmin -24.4, Qmax 38.6 -> Qmin -61.2, Qmax 61.2
% INFO    : Gen at bus 114	: Qg 46.0, Qmin -25.0, Qmax 33.0 -> Qmin -55.2, Qmax 55.2
% INFO    : Gen at bus 118	: Qg 98.0, Qmin -44.0, Qmax 100.0 -> Qmin -117.6, Qmax 100.0
% INFO    : Gen at bus 121	: Qg 194.0, Qmin -120.0, Qmax 250.0 -> Qmin -232.8, Qmax 250.0
% INFO    : 
% INFO    : === Generator Classification Notes ===
% INFO    : COW    7   -    84.29
% INFO    : NG     5   -    15.71
% INFO    : 
% INFO    : === Generator Active Capacity Stat Model Notes ===
% INFO    : Gen at bus 6 - COW	: Pg=874.0, Pmax=1147.0 -> Pmax=983   samples: 37
% INFO    : Gen at bus 73 - COW	: Pg=400.0, Pmax=451.0 -> Pmax=513   samples: 1
% INFO    : Gen at bus 76 - COW	: Pg=1248.0, Pmax=1127.0 -> Pmax=1616   samples: 5
% INFO    : Gen at bus 99 - NG	: Pg=143.0, Pmax=366.0 -> Pmax=216   samples: 4
% INFO    : Gen at bus 101 - NG	: Pg=82.0, Pmax=110.0 -> Pmax=149   samples: 2
% INFO    : Gen at bus 108 - COW	: Pg=598.0, Pmax=1119.0 -> Pmax=612   samples: 14
% INFO    : Gen at bus 114 - NG	: Pg=143.0, Pmax=308.0 -> Pmax=275   samples: 8
% INFO    : Gen at bus 118 - NG	: Pg=175.0, Pmax=455.0 -> Pmax=268   samples: 2
% INFO    : Gen at bus 121 - COW	: Pg=693.0, Pmax=700.0 -> Pmax=960   samples: 25
% WARNING : Failed to find a generator capacity within (2233.0-11165.0) after 100 samples, using percent increase model
% INFO    : Gen at bus 125 - COW	: Pg=2233.0, Pmax=2526.0 -> Pmax=2422   samples: 100
% INFO    : Gen at bus 130 - COW	: Pg=571.0, Pmax=1593.0 -> Pmax=624   samples: 4
% WARNING : Failed to find a generator capacity within (690.0-3450.0) after 100 samples, using percent increase model
% INFO    : Gen at bus 131 - NG	: Pg=690.0, Pmax=1130.0 -> Pmax=779   samples: 100
% INFO    : 
% INFO    : === Generator Active Capacity LB Model Notes ===
% INFO    : 
% INFO    : === Generator Reactive Capacity Atleast Max 50 Percent Active Model Notes ===
% INFO    : Gen at bus 6 - COW	: Pmax 983.0, Qmin -254.4, Qmax 400.0 -> Qmin -492.0, Qmax 492.0
% INFO    : Gen at bus 73 - COW	: Pmax 513.0, Qmin -199.2, Qmax 226.0 -> Qmin -257.0, Qmax 257.0
% INFO    : Gen at bus 76 - COW	: Pmax 1616.0, Qmin -170.0, Qmax 564.0 -> Qmin -808.0, Qmax 808.0
% INFO    : Gen at bus 99 - NG	: Pmax 216.0, Qmin -60.6, Qmax 75.6 -> Qmin -108.0, Qmax 108.0
% INFO    : Gen at bus 101 - NG	: Pmax 149.0, Qmin -61.2, Qmax 61.2 -> Qmin -75.0, Qmax 75.0
% INFO    : Gen at bus 114 - NG	: Pmax 275.0, Qmin -55.2, Qmax 55.2 -> Qmin -138.0, Qmax 138.0
% INFO    : Gen at bus 118 - NG	: Pmax 268.0, Qmin -117.6, Qmax 100.0 -> Qmin -134.0, Qmax 134.0
% INFO    : Gen at bus 121 - COW	: Pmax 960.0, Qmin -232.8, Qmax 250.0 -> Qmin -480.0, Qmax 480.0
% INFO    : Gen at bus 125 - COW	: Pmax 2422.0, Qmin -1099.0, Qmax 1263.0 -> Qmin -1211.0, Qmax 1263.0
% INFO    : Gen at bus 130 - COW	: Pmax 624.0, Qmin -144.0, Qmax 288.0 -> Qmin -312.0, Qmax 312.0
% INFO    : Gen at bus 131 - NG	: Pmax 779.0, Qmin -265.0, Qmax 320.0 -> Qmin -390.0, Qmax 390.0
% INFO    : 
% INFO    : === Generator Setpoint Replacement Notes ===
% INFO    : Gen at bus 6	: Pg=874.0, Qg=212.0 -> Pg=491.5, Qg=0.0
% INFO    : Gen at bus 73	: Pg=400.0, Qg=166.0 -> Pg=256.5, Qg=0.0
% INFO    : Gen at bus 76	: Pg=1248.0, Qg=66.0 -> Pg=808.0, Qg=0.0
% INFO    : Gen at bus 99	: Pg=143.0, Qg=47.0 -> Pg=108.0, Qg=0.0
% INFO    : Gen at bus 101	: Pg=82.0, Qg=51.0 -> Pg=74.5, Qg=0.0
% INFO    : Gen at bus 108	: Pg=598.0, Qg=44.0 -> Pg=306.0, Qg=0.0
% INFO    : Gen at bus 114	: Pg=143.0, Qg=46.0 -> Pg=137.5, Qg=0.0
% INFO    : Gen at bus 118	: Pg=175.0, Qg=98.0 -> Pg=134.0, Qg=0.0
% INFO    : Gen at bus 121	: Pg=693.0, Qg=194.0 -> Pg=480.0, Qg=0.0
% INFO    : Gen at bus 125	: Pg=2233.0, Qg=112.0 -> Pg=1211.0, Qg=26.0
% INFO    : Gen at bus 130	: Pg=571.0, Qg=91.0 -> Pg=312.0, Qg=0.0
% INFO    : Gen at bus 131	: Pg=690.0, Qg=169.0 -> Pg=389.5, Qg=0.0
% INFO    : 
% INFO    : === Writing Matpower Case File Notes ===
